Circuit: * C:\Users\brend\Documents\LTspiceXVII\Draft1.asc

WARNING: Node HCS_VIN:N001 is floating.


Date: Sun Nov 29 23:15:07 2020
Total elapsed time: 0.104 seconds.

tnom = 27
temp = 27
method = trap
totiter = 0
traniter = 0
tranpoints = 0
accept = 0
rejected = 0
matrix size = 5
fillins = 0
solver = Normal

