Circuit: * C:\Users\brend\Documents\LTspiceXVII\Filter_Model.asc

WARNING: Node N001 is floating.
WARNING: Node FILTER_OUT is floating.

WARNING: Less than two connections to node FILTER_OUT.  This node is used by C2.
No AC stimulus found:
     Set the value of a current or voltage source to "AC 1."
     to make it behave as a signal generator for AC analysis.

c1_value: c1=(-131.927dB,0°)
c2_value: c2=(-151.012dB,0°)


Date: Mon Nov 30 13:04:17 2020
Total elapsed time: 0.078 seconds.

tnom = 27
temp = 27
method = trap
totiter = 0
traniter = 0
tranpoints = 0
accept = 0
rejected = 0
matrix size = 4
fillins = 0
solver = Normal

