Circuit: * C:\Users\brend\Documents\LTspiceXVII\ToneGen_TopLevel.asc

WARNING: Node FILTER:N001 is floating.

Ignoring empty pin current: Ix(u1:1)
Ignoring empty pin current: Ix(u1:2)
Ignoring empty pin current: Ix(u1:3)

Date: Mon Nov 30 16:52:26 2020
Total elapsed time: 0.119 seconds.

tnom = 27
temp = 27
method = trap
totiter = 0
traniter = 0
tranpoints = 0
accept = 0
rejected = 0
matrix size = 14
fillins = 5
solver = Normal

